# MODFLOW2000 - Link-MT3DMS Package Input File
OUTPUT_FILE_NAME DHmodel_2014to2020.ftl
OUTPUT_FILE_UNIT 20
OUTPUT_FILE_HEADER Extended
OUTPUT_FILE_FORMAT Unformatted
