nwell            162                        ! number of entries in the wellrate input file
namfile          100hr3.nam                 !MODFLOW name file
headfile         100hr3init.hds             ! Specified initial heads
xoff             571750                     ! model X offset
yoff             150500                     ! model Y offset
rotation         0.0                        ! model rotation
wellinfo         wellinfodxhx_cy2014_jul2023.csv                  !input file containing well id, location, and conductance terms
wellrate         wellratesdxhx_cy2014_jul2023.csv     !input file containing well id, rate, start time and end time
wellfile         100hr3.wel      ! Well Output file
mnwfile          100hr3.mnw      ! MNW Output file
mnw2file         100hr3.mnw2     ! MNW2 Output file
stratfile        strat.txt ! Output file
starttime       -2     !  set to 0 if stress periods are specified, >0 if times are specified in wellrate input file
MNWFLAG          2     !  set to 0 for .WEL, 1 for .MNW, 2 for .MNW2, and 3 for both .WEL and .MNW2
IWL2CB         -50
IADJUSTBOT       1
