#Headtarg.exe input file
NTARG	201
DISFILE	..\..\..\..\..\model_files\flow_2014_2023\100hr3.dis
XOFF	571750
YOFF	154830
ROTATION	0
CONCFILE	..\..\MT3D001.UCN
CUTOFF	0.000000001
LOGLIN	lin
#End In
# NAME	Decimal	XCOORDS	YCOORDS	MidScrElev(m)	STD_VALUE_RPTD
199-H4-15A	2576.375	577904.313	153053.42	114.786	0.0
199-H4-4	2576.375	578060.859	152853.956	115.711	0.0
199-H4-86	2583.375	577704.55	152745.65	115.356	7.0
199-H3-25	2583.375	577410.36	152978.49	115.12549999999999	9.0
199-H4-12A	2591.427777777778	578009.151	152912.729	114.872	2.44
199-H4-15A	2595.375	577904.313	153053.42	114.786	1.91
199-H4-4	2595.3888888888887	578060.859	152853.956	115.711	2.13
199-H4-15A	2596.3125	577904.313	153053.42	114.786	4.0
199-H4-4	2596.3125	578060.859	152853.956	115.711	7.0
199-H4-85	2596.3527777777776	577980.02	152880.81	117.395	3.1
199-H4-89	2605.5	577923.32	152893.98	117.1285	3.57
199-H4-84	2609.4479166666665	577902.58	152848.73	115.69	13.99
199-H4-88	2609.483333333333	577850.51	152833.59	117.83	4.85
199-H4-88	2609.483333333333	577850.51	152833.59	117.83	5.15
199-H3-25	2612.3541666666665	577410.36	152978.49	115.12549999999999	8.0
199-H4-86	2612.3541666666665	577704.55	152745.65	115.356	7.0
199-H4-15A	2625.3958333333335	577904.313	153053.42	114.786	7.0
199-H3-25	2631.3125	577410.36	152978.49	115.12549999999999	13.0
199-H4-86	2631.3125	577704.55	152745.65	115.356	4.0
199-H4-86	2637.3888888888887	577704.55	152745.65	115.356	3.7
199-H3-25	2637.409722222222	577410.36	152978.49	115.12549999999999	7.43
199-H3-25	2651.0680555555555	577410.36	152978.49	115.12549999999999	10.0
199-H4-86	2651.0680555555555	577704.55	152745.65	115.356	6.0
199-H4-15A	2659.0520833333335	577904.313	153053.42	114.786	0.0
199-H4-86	2681.4270833333335	577704.55	152745.65	115.356	5.82
199-H4-15A	2681.45	577904.313	153053.42	114.786	1.83
199-H4-86	2688.4166666666665	577704.55	152745.65	115.356	0.0
199-H4-12A	2689.3909722222224	578009.151	152912.729	114.872	2.18
199-H4-15A	2693.3305555555557	577904.313	153053.42	114.786	10.0
199-H4-8	2715.3333333333335	577860.691	152921.704	116.1	4.6
199-H4-89	2715.371527777778	577923.32	152893.98	117.1285	2.51
199-H4-89	2715.371527777778	577923.32	152893.98	117.1285	2.5
199-H4-84	2715.3958333333335	577902.58	152848.73	115.69	10.8
199-H4-88	2715.4284722222224	577850.51	152833.59	117.83	6.35
199-H4-88	2715.4284722222224	577850.51	152833.59	117.83	6.21
199-H4-85	2715.4645833333334	577980.02	152880.81	117.395	3.07
199-H3-25	2730.476388888889	577410.36	152978.49	115.12549999999999	8.41
199-H4-15A	2735.325	577904.313	153053.42	114.786	4.0
199-H4-86	2735.3659722222224	577704.55	152745.65	115.356	9.0
199-H3-25	2735.3659722222224	577410.36	152978.49	115.12549999999999	12.0
199-H4-15A	2744.371527777778	577904.313	153053.42	114.786	3.0
199-H3-25	2744.411111111111	577410.36	152978.49	115.12549999999999	12.0
199-H4-86	2744.411111111111	577704.55	152745.65	115.356	10.0
199-H4-15A	2792.336111111111	577904.313	153053.42	114.786	2.5
199-H4-86	2792.3958333333335	577704.55	152745.65	115.356	4.26
199-H4-15A	2794.4270833333335	577904.313	153053.42	114.786	1.0
199-H4-86	2798.320138888889	577704.55	152745.65	115.356	8.0
199-H3-26	2798.320138888889	577440.83	152846.5	115.045	9.0
199-H4-86	2812.53125	577704.55	152745.65	115.356	1.0
199-H4-15A	2813.36875	577904.313	153053.42	114.786	0.0
199-H4-85	2815.3368055555557	577980.02	152880.81	117.395	3.18
199-H4-89	2815.375	577923.32	152893.98	117.1285	3.4
199-H4-88	2815.5006944444444	577850.51	152833.59	117.83	4.18
199-H4-64	2829.3694444444445	577946.11	153010.582	116.513	2.5
199-H4-15A	2836.3819444444443	577904.313	153053.42	114.786	-2.0
199-H4-86	2841.3875	577704.55	152745.65	115.356	5.0
199-H4-85	2843.3625	577980.02	152880.81	117.395	2.79
199-H4-88	2843.4055555555556	577850.51	152833.59	117.83	5.27
199-H4-89	2843.4861111111113	577923.32	152893.98	117.1285	3.13
199-H4-15A	2856.4583333333335	577904.313	153053.42	114.786	2.5
199-H4-86	2861.3930555555557	577704.55	152745.65	115.356	5.79
199-H3-25	2861.4243055555557	577410.36	152978.49	115.12549999999999	6.36
199-H4-15A	2862.5694444444443	577904.313	153053.42	114.786	16.0
199-H4-64	2862.5694444444443	577946.11	153010.582	116.513	201.0
199-H4-64	2870.597222222222	577946.11	153010.582	116.513	199.0
199-H3-25	2870.6076388888887	577410.36	152978.49	115.12549999999999	3.0
199-H3-2A	2877.478472222222	577624.63	152750.04	115.055	2.97
199-H4-5	2879.4305555555557	577944.937	152939.783	114.342	2.5
199-H4-12A	2881.434027777778	578009.151	152912.729	114.872	2.5
199-H4-65	2881.590277777778	577998.259	152787.285	115.791	4.97
199-H4-84	2905.3298611111113	577902.58	152848.73	115.69	27.6
199-H4-8	2905.3527777777776	577860.691	152921.704	116.1	3.57
199-H3-25	2933.3791666666666	577410.36	152978.49	115.12549999999999	6.72
199-H4-89	2934.383333333333	577923.32	152893.98	117.1285	7.0
199-H4-15A	2934.383333333333	577904.313	153053.42	114.786	0.0
199-H4-15A	2934.3875	577904.313	153053.42	114.786	2.5
199-H4-86	2939.391666666667	577704.55	152745.65	115.356	12.0
199-H3-25	2939.391666666667	577410.36	152978.49	115.12549999999999	13.0
199-H4-86	2961.55625	577704.55	152745.65	115.356	9.0
199-H4-86	2967.375	577704.55	152745.65	115.356	7.83
199-H4-64	2967.422916666667	577946.11	153010.582	116.513	2.5
199-H4-4	2967.463888888889	578060.859	152853.956	115.711	2.5
199-H4-15A	2974.3958333333335	577904.313	153053.42	114.786	0.0
199-H4-4	2974.3958333333335	578060.859	152853.956	115.711	5.0
199-H4-86	2996.3680555555557	577704.55	152745.65	115.356	6.0
199-H4-15A	3001.40625	577904.313	153053.42	114.786	6.0
199-H4-15A	3018.4125	577904.313	153053.42	114.786	5.0
199-H3-25	3022.5520833333335	577410.36	152978.49	115.12549999999999	7.0
199-H4-86	3022.5520833333335	577704.55	152745.65	115.356	7.0
199-H4-4	3059.5208333333335	578060.859	152853.956	115.711	8.0
199-H4-15A	3059.5208333333335	577904.313	153053.42	114.786	7.0
199-H4-86	3086.5416666666665	577704.55	152745.65	115.356	0.0
199-H4-4	3094.5173611111113	578060.859	152853.956	115.711	8.0
199-H4-15A	3094.5173611111113	577904.313	153053.42	114.786	0.0
199-H4-86	3121.3020833333335	577704.55	152745.65	115.356	8.0
199-H4-4	3129.3923611111113	578060.859	152853.956	115.711	8.0
199-H4-4	3142.36875	578060.859	152853.956	115.711	4.0
199-H4-86	3150.3611111111113	577704.55	152745.65	115.356	12.0
199-H4-86	3176.375	577704.55	152745.65	115.356	12.0
199-H4-86	3214.402777777778	577704.55	152745.65	115.356	8.63
199-H4-86	3214.402777777778	577704.55	152745.65	115.356	9.23
199-H3-25	3214.4270833333335	577410.36	152978.49	115.12549999999999	5.31
199-H3-25	3214.4270833333335	577410.36	152978.49	115.12549999999999	5.16
199-H3-26	3214.4479166666665	577440.83	152846.5	115.045	4.92
199-H3-27	3221.358333333333	577567.05	152811.14	115.0775	2.5
199-H3-2A	3222.35625	577624.63	152750.04	115.055	4.32
199-H4-64	3222.38125	577946.11	153010.582	116.513	2.5
199-H4-5	3222.4055555555556	577944.937	152939.783	114.342	2.5
199-H4-12A	3222.4416666666666	578009.151	152912.729	114.872	2.5
199-H4-65	3222.476388888889	577998.259	152787.285	115.791	5.43
199-H4-18	3222.525	578018.292	152756.478	116.03799999999998	2.5
199-H3-2A	3226.41875	577624.63	152750.04	115.055	4.83
199-H4-65	3231.4847222222224	577998.259	152787.285	115.791	5.97
199-H4-64	3243.340277777778	577946.11	153010.582	116.513	2.5
199-H4-12A	3243.3840277777776	578009.151	152912.729	114.872	2.5
199-H4-5	3243.4513888888887	577944.937	152939.783	114.342	2.5
199-H4-18	3269.427777777778	578018.292	152756.478	116.03799999999998	2.5
199-H4-15A	3274.3569444444443	577904.313	153053.42	114.786	2.5
199-H4-15A	3274.3569444444443	577904.313	153053.42	114.786	2.5
199-H4-88	3274.3576388888887	577850.51	152833.59	117.83	4.28
199-H4-64	3274.3805555555555	577946.11	153010.582	116.513	2.5
199-H4-12A	3274.4090277777777	578009.151	152912.729	114.872	2.5
199-H4-5	3274.452083333333	577944.937	152939.783	114.342	2.5
199-H3-2A	3274.4756944444443	577624.63	152750.04	115.055	4.63
199-H4-85	3275.366666666667	577980.02	152880.81	117.395	2.5
199-H4-65	3275.3888888888887	577998.259	152787.285	115.791	8.05
199-H4-18	3275.4152777777776	578018.292	152756.478	116.03799999999998	4.12
199-H3-27	3275.445833333333	577567.05	152811.14	115.0775	2.5
199-H4-86	3305.3555555555554	577704.55	152745.65	115.356	9.84
199-H4-15A	3306.3465277777777	577904.313	153053.42	114.786	2.5
199-H4-64	3306.3694444444445	577946.11	153010.582	116.513	2.5
199-H4-5	3306.395138888889	577944.937	152939.783	114.342	2.5
199-H4-12A	3306.440972222222	578009.151	152912.729	114.872	2.5
199-H3-2A	3331.38125	577624.63	152750.04	115.055	5.03
199-H3-27	3331.402777777778	577567.05	152811.14	115.0775	2.5
199-H4-89	3331.4284722222224	577923.32	152893.98	117.1285	3.94
199-H4-84	3331.4569444444446	577902.58	152848.73	115.69	18.3
199-H4-84	3331.4569444444446	577902.58	152848.73	115.69	20.1
199-H4-88	3331.4840277777776	577850.51	152833.59	117.83	5.06
199-H4-12A	3333.358333333333	578009.151	152912.729	114.872	2.5
199-H4-5	3333.3805555555555	577944.937	152939.783	114.342	2.5
199-H4-15A	3333.3958333333335	577904.313	153053.42	114.786	2.5
199-H4-17	3333.407638888889	577779.175	153037.635	116.73	2.5
199-H4-8	3333.420833333333	577860.691	152921.704	116.1	4.39
199-H4-64	3333.422916666667	577946.11	153010.582	116.513	2.5
199-H4-85	3333.440972222222	577980.02	152880.81	117.395	2.5
199-H4-65	3333.463888888889	577998.259	152787.285	115.791	10.7
199-H4-18	3333.4972222222223	578018.292	152756.478	116.03799999999998	2.6
199-H4-12A	3365.375	578009.151	152912.729	114.872	2.84
199-H4-5	3365.401388888889	577944.937	152939.783	114.342	2.5
199-H4-64	3365.4284722222224	577946.11	153010.582	116.513	2.5
199-H4-15A	3365.4513888888887	577904.313	153053.42	114.786	2.5
199-H4-86	3368.426388888889	577704.55	152745.65	115.356	8.17
199-H3-26	3368.4416666666666	577440.83	152846.5	115.045	3.25
199-H3-25	3368.4479166666665	577410.36	152978.49	115.12549999999999	5.41
199-H3-2A	3388.3611111111113	577624.63	152750.04	115.055	4.47
199-H3-25	3388.375	577410.36	152978.49	115.12549999999999	6.13
199-H3-27	3388.3791666666666	577567.05	152811.14	115.0775	2.5
199-H4-86	3388.3819444444443	577704.55	152745.65	115.356	5.75
199-H4-12A	3388.4347222222223	578009.151	152912.729	114.872	2.5
199-H4-5	3388.4583333333335	577944.937	152939.783	114.342	2.65
199-H4-15A	3389.3458333333333	577904.313	153053.42	114.786	2.5
199-H4-85	3389.3479166666666	577980.02	152880.81	117.395	2.5
199-H4-89	3389.366666666667	577923.32	152893.98	117.1285	2.66
199-H4-64	3389.36875	577946.11	153010.582	116.513	2.5
199-H4-65	3389.414583333333	577998.259	152787.285	115.791	9.65
199-H4-18	3389.44375	578018.292	152756.478	116.03799999999998	2.5
199-H4-88	3389.4548611111113	577850.51	152833.59	117.83	5.05
199-H4-5	3407.371527777778	577944.937	152939.783	114.342	2.5
199-H4-64	3407.404861111111	577946.11	153010.582	116.513	2.5
199-H4-15A	3407.4270833333335	577904.313	153053.42	114.786	2.5
199-H4-12A	3407.46875	578009.151	152912.729	114.872	2.5
199-H4-89	3416.3680555555557	577923.32	152893.98	117.1285	2.64
199-H4-84	3416.3819444444443	577902.58	152848.73	115.69	22.3
199-H4-88	3416.4256944444446	577850.51	152833.59	117.83	6.0
199-H4-4	3436.4618055555557	578060.859	152853.956	115.711	2.5
199-H4-84	3445.3416666666667	577902.58	152848.73	115.69	428.0
199-H4-64	3445.3479166666666	577946.11	153010.582	116.513	2.5
199-H4-8	3445.35625	577860.691	152921.704	116.1	2.68
199-H4-15A	3445.3708333333334	577904.313	153053.42	114.786	2.5
199-H4-89	3445.371527777778	577923.32	152893.98	117.1285	2.57
199-H4-88	3445.3930555555557	577850.51	152833.59	117.83	9.15
199-H4-88	3445.3930555555557	577850.51	152833.59	117.83	9.27
199-H4-85	3445.4222222222224	577980.02	152880.81	117.395	2.5
199-H4-5	3445.4222222222224	577944.937	152939.783	114.342	2.5
199-H3-2A	3445.4659722222223	577624.63	152750.04	115.055	4.62
199-H3-27	3445.4868055555557	577567.05	152811.14	115.0775	2.5
199-H4-12A	3449.375	578009.151	152912.729	114.872	11.0
199-H4-18	3449.3958333333335	578018.292	152756.478	116.03799999999998	5.87
199-H4-65	3449.414583333333	577998.259	152787.285	115.791	5.37
199-H4-17	3449.4305555555557	577779.175	153037.635	116.73	2.5
199-H3-25	3458.4180555555554	577410.36	152978.49	115.12549999999999	7.3
199-H3-26	3458.425	577440.83	152846.5	115.045	4.93
199-H4-86	3458.4305555555557	577704.55	152745.65	115.356	4.44
199-H4-4	3458.440972222222	578060.859	152853.956	115.711	2.5
199-H4-15A	3484.3555555555554	577904.313	153053.42	114.786	2.5
199-H4-64	3484.378472222222	577946.11	153010.582	116.513	2.5
199-H4-5	3484.4020833333334	577944.937	152939.783	114.342	2.5
199-H4-12A	3484.4416666666666	578009.151	152912.729	114.872	2.5
199-H4-4	3491.3368055555557	578060.859	152853.956	115.711	2.53
199-H4-84	3494.4645833333334	577902.58	152848.73	115.69	40.8
